# CIF file
# This file was generated by FINDSYM
# Harold T. Stokes, Branton J. Campbell, Dorian M. Hatch
# Brigham Young University, Provo, Utah, USA
 
data_findsym-output
_audit_creation_method FINDSYM
 
_symmetry_space_group_name_H-M "P 4/n (origin choice 2)"
_symmetry_Int_Tables_number 85
 
_cell_length_a    5.17796
_cell_length_b    5.17796
_cell_length_c    7.74963
_cell_angle_alpha 90.00000
_cell_angle_beta  90.00000
_cell_angle_gamma 90.00000
 
loop_
_space_group_symop_id
_space_group_symop_operation_xyz
1 x,y,z
2 -x+1/2,-y+1/2,z
3 -y+1/2,x,z
4 y,-x+1/2,z
5 -x,-y,-z
6 x+1/2,y+1/2,-z
7 y+1/2,-x,-z
8 -y,x+1/2,-z
 
loop_
_atom_site_label
_atom_site_type_symbol
_atom_site_symmetry_multiplicity
_atom_site_Wyckoff_label
_atom_site_fract_x
_atom_site_fract_y
_atom_site_fract_z
_atom_site_occupancy
W1 W   2 c 0.25000 0.25000 0.21688 1.00000
W2 W   2 c 0.25000 0.25000 0.71936 1.00000
O1 O   2 c 0.25000 0.25000 0.44025 1.00000
O2 O   2 c 0.25000 0.25000 0.04309 1.00000
O3 O   8 g 0.40022 0.50140 0.24566 1.00000
 
