# CIF file
# This file was generated by FINDSYM
# Harold T. Stokes, Branton J. Campbell, Dorian M. Hatch
# Brigham Young University, Provo, Utah, USA
 
data_findsym-output
_audit_creation_method FINDSYM
 
_symmetry_space_group_name_H-M "P 1"
_symmetry_Int_Tables_number 1
 
_cell_length_a    5.17796
_cell_length_b    5.17796
_cell_length_c    7.74963
_cell_angle_alpha 90.00000
_cell_angle_beta  90.00000
_cell_angle_gamma 90.00000
 
loop_
_space_group_symop_id
_space_group_symop_operation_xyz
1 x,y,z
 
loop_
_atom_site_label
_atom_site_type_symbol
_atom_site_symmetry_multiplicity
_atom_site_Wyckoff_label
_atom_site_fract_x
_atom_site_fract_y
_atom_site_fract_z
_atom_site_occupancy
O1  O   1 a 0.30119  0.20474  0.49167  1.00000
O2  O   1 a 0.70620  0.80190  0.50833  1.00000
O3  O   1 a 0.70582  0.79673  0.00833  1.00000
O4  O   1 a 0.30151  0.21076  -0.00833 1.00000
O5  O   1 a 0.44964  0.55706  0.25366  1.00000
O6  O   1 a 0.55289  0.44606  0.75726  1.00000
O7  O   1 a 0.05036  -0.05706 0.25366  1.00000
O8  O   1 a -0.05289 0.05394  0.75726  1.00000
O9  O   1 a -0.06708 0.46925  0.32093  1.00000
O10 O   1 a 0.06692  0.53000  0.67935  1.00000
O11 O   1 a 0.56708  0.03075  0.32093  1.00000
O12 O   1 a 0.43308  -0.03000 0.67935  1.00000
W1  W   1 a 0.81393  0.48341  0.21812  1.00000
W2  W   1 a 0.14676  0.45331  0.78188  1.00000
W3  W   1 a -0.02729 0.31935  0.28188  1.00000
W4  W   1 a -0.03694 0.63977  0.71812  1.00000
 
