# CIF file
# This file was generated by FINDSYM
# Harold T. Stokes, Branton J. Campbell, Dorian M. Hatch
# Brigham Young University, Provo, Utah, USA
 
data_findsym-output
_audit_creation_method FINDSYM
 
_symmetry_space_group_name_H-M "P 21 21 2"
_symmetry_Int_Tables_number 18
 
_cell_length_a    7.32365
_cell_length_b    7.32365
_cell_length_c    7.74959
_cell_angle_alpha 90.00000
_cell_angle_beta  90.00000
_cell_angle_gamma 90.00000
 
loop_
_space_group_symop_id
_space_group_symop_operation_xyz
1 x,y,z
2 x+1/2,-y+1/2,-z
3 -x+1/2,y+1/2,-z
4 -x,-y,z
 
loop_
_atom_site_label
_atom_site_type_symbol
_atom_site_symmetry_multiplicity
_atom_site_Wyckoff_label
_atom_site_fract_x
_atom_site_fract_y
_atom_site_fract_z
_atom_site_occupancy
W1 W   4 c 0.24328 0.23491 0.51636  1.00000
W2 W   4 c 0.23455 0.74415 -0.01636 1.00000
O1 O   4 c 0.23091 0.23823 0.25410  1.00000
O2 O   4 c 0.22819 0.75527 0.24590  1.00000
O3 O   4 c 0.73744 0.50586 0.48668  1.00000
O4 O   4 c 0.76256 0.50333 0.00416  1.00000
O5 O   4 c 0.00112 0.73744 0.51907  1.00000
O6 O   4 c 0.50495 0.26256 0.02288  1.00000
 
