# CIF file
# This file was generated by FINDSYM
# Harold T. Stokes, Branton J. Campbell, Dorian M. Hatch
# Brigham Young University, Provo, Utah, USA
 
data_findsym-output
_audit_creation_method FINDSYM
 
_symmetry_space_group_name_H-M "P 21 21 2"
_symmetry_Int_Tables_number 18
 
_cell_length_a    7.32365
_cell_length_b    7.32365
_cell_length_c    7.74959
_cell_angle_alpha 90.00000
_cell_angle_beta  90.00000
_cell_angle_gamma 90.00000
 
loop_
_space_group_symop_id
_space_group_symop_operation_xyz
1 x,y,z
2 x+1/2,-y+1/2,-z
3 -x+1/2,y+1/2,-z
4 -x,-y,z
 
loop_
_atom_site_label
_atom_site_type_symbol
_atom_site_symmetry_multiplicity
_atom_site_Wyckoff_label
_atom_site_fract_x
_atom_site_fract_y
_atom_site_fract_z
_atom_site_occupancy
W1 W   4 c 0.75962 0.23287 0.51636  1.00000
W2 W   4 c 0.73345 0.76059 -0.01636 1.00000
O1 O   4 c 0.74768 0.22341 0.25410  1.00000
O2 O   4 c 0.73954 0.77455 0.24590  1.00000
O3 O   4 c 0.23744 0.50523 0.47234  1.00000
O4 O   4 c 0.26256 0.49765 0.02480  1.00000
O5 O   4 c 0.49520 0.73744 0.50083  1.00000
O6 O   4 c 0.00669 0.26256 0.01228  1.00000
 
