# CIF file
# This file was generated by FINDSYM
# Harold T. Stokes, Branton J. Campbell, Dorian M. Hatch
# Brigham Young University, Provo, Utah, USA
 
data_findsym-output
_audit_creation_method FINDSYM
 
_symmetry_space_group_name_H-M "P 21 21 2"
_symmetry_Int_Tables_number 18
 
_cell_length_a    7.32365
_cell_length_b    7.32365
_cell_length_c    7.74959
_cell_angle_alpha 90.00000
_cell_angle_beta  90.00000
_cell_angle_gamma 90.00000
 
loop_
_space_group_symop_id
_space_group_symop_operation_xyz
1 x,y,z
2 x+1/2,-y+1/2,-z
3 -x+1/2,y+1/2,-z
4 -x,-y,z
 
loop_
_atom_site_label
_atom_site_type_symbol
_atom_site_symmetry_multiplicity
_atom_site_Wyckoff_label
_atom_site_fract_x
_atom_site_fract_y
_atom_site_fract_z
_atom_site_occupancy
W1 W   4 c 0.25361  0.21841 0.52790  1.00000
W2 W   4 c 0.21867  0.75541 -0.02790 1.00000
O1 O   4 c 0.22986  0.21180 0.25724  1.00000
O2 O   4 c 0.21900  0.78006 0.24276  1.00000
O3 O   4 c 0.70922  0.51081 0.45927  1.00000
O4 O   4 c 0.79078  0.50069 0.02929  1.00000
O5 O   4 c -0.00388 0.70922 0.51859  1.00000
O6 O   4 c 0.51146  0.29078 0.03387  1.00000
 
