# CIF file
# This file was generated by FINDSYM
# Harold T. Stokes, Branton J. Campbell, Dorian M. Hatch
# Brigham Young University, Provo, Utah, USA
 
data_findsym-output
_audit_creation_method FINDSYM
 
_symmetry_space_group_name_H-M "P 21 21 2"
_symmetry_Int_Tables_number 18
 
_cell_length_a    7.32365
_cell_length_b    7.32365
_cell_length_c    7.74959
_cell_angle_alpha 90.00000
_cell_angle_beta  90.00000
_cell_angle_gamma 90.00000
 
loop_
_space_group_symop_id
_space_group_symop_operation_xyz
1 x,y,z
2 x+1/2,-y+1/2,-z
3 -x+1/2,y+1/2,-z
4 -x,-y,z
 
loop_
_atom_site_label
_atom_site_type_symbol
_atom_site_symmetry_multiplicity
_atom_site_Wyckoff_label
_atom_site_fract_x
_atom_site_fract_y
_atom_site_fract_z
_atom_site_occupancy
W1 W   4 c 0.75823 0.22277 0.52207  1.00000
W2 W   4 c 0.72329 0.75977 -0.02207 1.00000
O1 O   4 c 0.73838 0.21316 0.25565  1.00000
O2 O   4 c 0.72752 0.78142 0.24435  1.00000
O3 O   4 c 0.22348 0.50889 0.46117  1.00000
O4 O   4 c 0.27652 0.49877 0.03119  1.00000
O5 O   4 c 0.49486 0.72348 0.50985  1.00000
O6 O   4 c 0.01020 0.27652 0.02513  1.00000
 
